# MODFLOW2005 Discretization File
# can run for a total of 100 stress periods
1   264   168   100   4   1
0
  CONSTANT   250.0 (10E12.4)                    0     DELTA-X or C
  CONSTANT   250.0 (10E12.4)                    0     DELTA-Y or R
  CONSTANT   150.0  (10e12.4)                   -1     Top of model
  CONSTANT   -150.0 (10e12.4)                   -1     BOTTOM of Layer  1
1.00    6   1.00      TR  STRESS PERIOD 001
1.00    6   1.00      TR  STRESS PERIOD 002
1.00    6   1.00      TR  STRESS PERIOD 003
1.00    6   1.00      TR  STRESS PERIOD 004
1.00    6   1.00      TR  STRESS PERIOD 005
1.00    6   1.00      TR  STRESS PERIOD 006
1.00    6   1.00      TR  STRESS PERIOD 007
1.00    6   1.00      TR  STRESS PERIOD 008
1.00    6   1.00      TR  STRESS PERIOD 009
1.00    6   1.00      TR  STRESS PERIOD 010
1.00    6   1.00      TR  STRESS PERIOD 011
1.00    6   1.00      TR  STRESS PERIOD 012
1.00    6   1.00      TR  STRESS PERIOD 013
1.00    6   1.00      TR  STRESS PERIOD 014
1.00    6   1.00      TR  STRESS PERIOD 015
1.00    6   1.00      TR  STRESS PERIOD 016
1.00    6   1.00      TR  STRESS PERIOD 017
1.00    6   1.00      TR  STRESS PERIOD 018
1.00    6   1.00      TR  STRESS PERIOD 019
1.00    6   1.00      TR  STRESS PERIOD 020
1.00    6   1.00      TR  STRESS PERIOD 021
1.00    6   1.00      TR  STRESS PERIOD 022
1.00    6   1.00      TR  STRESS PERIOD 023
1.00    6   1.00      TR  STRESS PERIOD 024
1.00    6   1.00      TR  STRESS PERIOD 025
1.00    6   1.00      TR  STRESS PERIOD 026
1.00    6   1.00      TR  STRESS PERIOD 027
1.00    6   1.00      TR  STRESS PERIOD 028
1.00    6   1.00      TR  STRESS PERIOD 029
1.00    6   1.00      TR  STRESS PERIOD 030
1.00    6   1.00      TR  STRESS PERIOD 031
1.00    6   1.00      TR  STRESS PERIOD 032
1.00    6   1.00      TR  STRESS PERIOD 033
1.00    6   1.00      TR  STRESS PERIOD 034
1.00    6   1.00      TR  STRESS PERIOD 035
1.00    6   1.00      TR  STRESS PERIOD 036
1.00    6   1.00      TR  STRESS PERIOD 037
1.00    6   1.00      TR  STRESS PERIOD 038
1.00    6   1.00      TR  STRESS PERIOD 039
1.00    6   1.00      TR  STRESS PERIOD 040
1.00    6   1.00      TR  STRESS PERIOD 041
1.00    6   1.00      TR  STRESS PERIOD 042
1.00    6   1.00      TR  STRESS PERIOD 043
1.00    6   1.00      TR  STRESS PERIOD 044
1.00    6   1.00      TR  STRESS PERIOD 045
1.00    6   1.00      TR  STRESS PERIOD 046
1.00    6   1.00      TR  STRESS PERIOD 047
1.00    6   1.00      TR  STRESS PERIOD 048
1.00    6   1.00      TR  STRESS PERIOD 049
1.00    6   1.00      TR  STRESS PERIOD 050
1.00    6   1.00      TR  STRESS PERIOD 051
1.00    6   1.00      TR  STRESS PERIOD 052
1.00    6   1.00      TR  STRESS PERIOD 053
1.00    6   1.00      TR  STRESS PERIOD 054
1.00    6   1.00      TR  STRESS PERIOD 055
1.00    6   1.00      TR  STRESS PERIOD 056
1.00    6   1.00      TR  STRESS PERIOD 057
1.00    6   1.00      TR  STRESS PERIOD 058
1.00    6   1.00      TR  STRESS PERIOD 059
1.00    6   1.00      TR  STRESS PERIOD 060
1.00    6   1.00      TR  STRESS PERIOD 061
1.00    6   1.00      TR  STRESS PERIOD 062
1.00    6   1.00      TR  STRESS PERIOD 063
1.00    6   1.00      TR  STRESS PERIOD 064
1.00    6   1.00      TR  STRESS PERIOD 065
1.00    6   1.00      TR  STRESS PERIOD 066
1.00    6   1.00      TR  STRESS PERIOD 067
1.00    6   1.00      TR  STRESS PERIOD 068
1.00    6   1.00      TR  STRESS PERIOD 069
1.00    6   1.00      TR  STRESS PERIOD 070
1.00    6   1.00      TR  STRESS PERIOD 071
1.00    6   1.00      TR  STRESS PERIOD 072
1.00    6   1.00      TR  STRESS PERIOD 073
1.00    6   1.00      TR  STRESS PERIOD 074
1.00    6   1.00      TR  STRESS PERIOD 075
1.00    6   1.00      TR  STRESS PERIOD 076
1.00    6   1.00      TR  STRESS PERIOD 077
1.00    6   1.00      TR  STRESS PERIOD 078
1.00    6   1.00      TR  STRESS PERIOD 079
1.00    6   1.00      TR  STRESS PERIOD 080
1.00    6   1.00      TR  STRESS PERIOD 081
1.00    6   1.00      TR  STRESS PERIOD 082
1.00    6   1.00      TR  STRESS PERIOD 083
1.00    6   1.00      TR  STRESS PERIOD 084
1.00    6   1.00      TR  STRESS PERIOD 085
1.00    6   1.00      TR  STRESS PERIOD 086
1.00    6   1.00      TR  STRESS PERIOD 087
1.00    6   1.00      TR  STRESS PERIOD 088
1.00    6   1.00      TR  STRESS PERIOD 089
1.00    6   1.00      TR  STRESS PERIOD 090
1.00    6   1.00      TR  STRESS PERIOD 091
1.00    6   1.00      TR  STRESS PERIOD 092
1.00    6   1.00      TR  STRESS PERIOD 093
1.00    6   1.00      TR  STRESS PERIOD 094
1.00    6   1.00      TR  STRESS PERIOD 095
1.00    6   1.00      TR  STRESS PERIOD 096
1.00    6   1.00      TR  STRESS PERIOD 097
1.00    6   1.00      TR  STRESS PERIOD 098
1.00    6   1.00      TR  STRESS PERIOD 099
1.00    6   1.00      TR  STRESS PERIOD 100
