# Discretization file for MODFLOW-2000, generate5d by Flopy.
         6       411       501   365         4         2
        0 0 0 0 0 0 0 
        0        500           (5G13.0)         -1 DELR(NCOL)
        0        500           (5G13.0)         -1 DELC(NROW)
OPEN/CLOSE                         ref\top_filter_20_edge.ref         1              (FREE)        -1 TOP OF SYSTEM
OPEN/CLOSE                                     ref\bot_q4.ref         1              (FREE)        -1 BOTTOM OF LAYER Q4
OPEN/CLOSE                                     ref\bot_q3.ref         1              (FREE)        -1 BOTTOM OF LAYER Q3
OPEN/CLOSE                                     ref\bot_q2.ref         1              (FREE)        -1 BOTTOM OF LAYER Q2
OPEN/CLOSE                                     ref\bot_q1.ref         1              (FREE)        -1 BOTTOM OF LAYER Q1
OPEN/CLOSE                                     ref\bot_t2.ref         1              (FREE)        -1 BOTTOM OF LAYER T2
OPEN/CLOSE                                     ref\bot_t1.ref         1              (FREE)        -1 BOTTOM OF LAYER T1
      1.000000             1  1.000000 TR
      1.000000             1  1.000000 TR
      1.000000             1  1.000000 TR
      1.000000             1  1.000000 TR
      1.000000             1  1.000000 TR
      1.000000             1  1.000000 TR
      1.000000             1  1.000000 TR
      1.000000             1  1.000000 TR
      1.000000             1  1.000000 TR
      1.000000             1  1.000000 TR
      1.000000             1  1.000000 TR
      1.000000             1  1.000000 TR
      1.000000             1  1.000000 TR
      1.000000             1  1.000000 TR
      1.000000             1  1.000000 TR
      1.000000             1  1.000000 TR
      1.000000             1  1.000000 TR
      1.000000             1  1.000000 TR
      1.000000             1  1.000000 TR
      1.000000             1  1.000000 TR
      1.000000             1  1.000000 TR
      1.000000             1  1.000000 TR
      1.000000             1  1.000000 TR
      1.000000             1  1.000000 TR
      1.000000             1  1.000000 TR
      1.000000             1  1.000000 TR
      1.000000             1  1.000000 TR
      1.000000             1  1.000000 TR
      1.000000             1  1.000000 TR
      1.000000             1  1.000000 TR
      1.000000             1  1.000000 TR
      1.000000             1  1.000000 TR
      1.000000             1  1.000000 TR
      1.000000             1  1.000000 TR
      1.000000             1  1.000000 TR
      1.000000             1  1.000000 TR
      1.000000             1  1.000000 TR
      1.000000             1  1.000000 TR
      1.000000             1  1.000000 TR
      1.000000             1  1.000000 TR
      1.000000             1  1.000000 TR
      1.000000             1  1.000000 TR
      1.000000             1  1.000000 TR
      1.000000             1  1.000000 TR
      1.000000             1  1.000000 TR
      1.000000             1  1.000000 TR
      1.000000             1  1.000000 TR
      1.000000             1  1.000000 TR
      1.000000             1  1.000000 TR
      1.000000             1  1.000000 TR
      1.000000             1  1.000000 TR
      1.000000             1  1.000000 TR
      1.000000             1  1.000000 TR
      1.000000             1  1.000000 TR
      1.000000             1  1.000000 TR
      1.000000             1  1.000000 TR
      1.000000             1  1.000000 TR
      1.000000             1  1.000000 TR
      1.000000             1  1.000000 TR
      1.000000             1  1.000000 TR
      1.000000             1  1.000000 TR
      1.000000             1  1.000000 TR
      1.000000             1  1.000000 TR
      1.000000             1  1.000000 TR
      1.000000             1  1.000000 TR
      1.000000             1  1.000000 TR
      1.000000             1  1.000000 TR
      1.000000             1  1.000000 TR
      1.000000             1  1.000000 TR
      1.000000             1  1.000000 TR
      1.000000             1  1.000000 TR
      1.000000             1  1.000000 TR
      1.000000             1  1.000000 TR
      1.000000             1  1.000000 TR
      1.000000             1  1.000000 TR
      1.000000             1  1.000000 TR
      1.000000             1  1.000000 TR
      1.000000             1  1.000000 TR
      1.000000             1  1.000000 TR
      1.000000             1  1.000000 TR
      1.000000             1  1.000000 TR
      1.000000             1  1.000000 TR
      1.000000             1  1.000000 TR
      1.000000             1  1.000000 TR
      1.000000             1  1.000000 TR
      1.000000             1  1.000000 TR
      1.000000             1  1.000000 TR
      1.000000             1  1.000000 TR
      1.000000             1  1.000000 TR
      1.000000             1  1.000000 TR
      1.000000             1  1.000000 TR
      1.000000             1  1.000000 TR
      1.000000             1  1.000000 TR
      1.000000             1  1.000000 TR
      1.000000             1  1.000000 TR
      1.000000             1  1.000000 TR
      1.000000             1  1.000000 TR
      1.000000             1  1.000000 TR
      1.000000             1  1.000000 TR
      1.000000             1  1.000000 TR
      1.000000             1  1.000000 TR
      1.000000             1  1.000000 TR
      1.000000             1  1.000000 TR
      1.000000             1  1.000000 TR
      1.000000             1  1.000000 TR
      1.000000             1  1.000000 TR
      1.000000             1  1.000000 TR
      1.000000             1  1.000000 TR
      1.000000             1  1.000000 TR
      1.000000             1  1.000000 TR
      1.000000             1  1.000000 TR
      1.000000             1  1.000000 TR
      1.000000             1  1.000000 TR
      1.000000             1  1.000000 TR
      1.000000             1  1.000000 TR
      1.000000             1  1.000000 TR
      1.000000             1  1.000000 TR
      1.000000             1  1.000000 TR
      1.000000             1  1.000000 TR
      1.000000             1  1.000000 TR
      1.000000             1  1.000000 TR
      1.000000             1  1.000000 TR
      1.000000             1  1.000000 TR
      1.000000             1  1.000000 TR
      1.000000             1  1.000000 TR
      1.000000             1  1.000000 TR
      1.000000             1  1.000000 TR
      1.000000             1  1.000000 TR
      1.000000             1  1.000000 TR
      1.000000             1  1.000000 TR
      1.000000             1  1.000000 TR
      1.000000             1  1.000000 TR
      1.000000             1  1.000000 TR
      1.000000             1  1.000000 TR
      1.000000             1  1.000000 TR
      1.000000             1  1.000000 TR
      1.000000             1  1.000000 TR
      1.000000             1  1.000000 TR
      1.000000             1  1.000000 TR
      1.000000             1  1.000000 TR
      1.000000             1  1.000000 TR
      1.000000             1  1.000000 TR
      1.000000             1  1.000000 TR
      1.000000             1  1.000000 TR
      1.000000             1  1.000000 TR
      1.000000             1  1.000000 TR
      1.000000             1  1.000000 TR
      1.000000             1  1.000000 TR
      1.000000             1  1.000000 TR
      1.000000             1  1.000000 TR
      1.000000             1  1.000000 TR
      1.000000             1  1.000000 TR
      1.000000             1  1.000000 TR
      1.000000             1  1.000000 TR
      1.000000             1  1.000000 TR
      1.000000             1  1.000000 TR
      1.000000             1  1.000000 TR
      1.000000             1  1.000000 TR
      1.000000             1  1.000000 TR
      1.000000             1  1.000000 TR
      1.000000             1  1.000000 TR
      1.000000             1  1.000000 TR
      1.000000             1  1.000000 TR
      1.000000             1  1.000000 TR
      1.000000             1  1.000000 TR
      1.000000             1  1.000000 TR
      1.000000             1  1.000000 TR
      1.000000             1  1.000000 TR
      1.000000             1  1.000000 TR
      1.000000             1  1.000000 TR
      1.000000             1  1.000000 TR
      1.000000             1  1.000000 TR
      1.000000             1  1.000000 TR
      1.000000             1  1.000000 TR
      1.000000             1  1.000000 TR
      1.000000             1  1.000000 TR
      1.000000             1  1.000000 TR
      1.000000             1  1.000000 TR
      1.000000             1  1.000000 TR
      1.000000             1  1.000000 TR
      1.000000             1  1.000000 TR
      1.000000             1  1.000000 TR
      1.000000             1  1.000000 TR
      1.000000             1  1.000000 TR
      1.000000             1  1.000000 TR
      1.000000             1  1.000000 TR
      1.000000             1  1.000000 TR
      1.000000             1  1.000000 TR
      1.000000             1  1.000000 TR
      1.000000             1  1.000000 TR
      1.000000             1  1.000000 TR
      1.000000             1  1.000000 TR
      1.000000             1  1.000000 TR
      1.000000             1  1.000000 TR
      1.000000             1  1.000000 TR
      1.000000             1  1.000000 TR
      1.000000             1  1.000000 TR
      1.000000             1  1.000000 TR
      1.000000             1  1.000000 TR
      1.000000             1  1.000000 TR
      1.000000             1  1.000000 TR
      1.000000             1  1.000000 TR
      1.000000             1  1.000000 TR
      1.000000             1  1.000000 TR
      1.000000             1  1.000000 TR
      1.000000             1  1.000000 TR
      1.000000             1  1.000000 TR
      1.000000             1  1.000000 TR
      1.000000             1  1.000000 TR
      1.000000             1  1.000000 TR
      1.000000             1  1.000000 TR
      1.000000             1  1.000000 TR
      1.000000             1  1.000000 TR
      1.000000             1  1.000000 TR
      1.000000             1  1.000000 TR
      1.000000             1  1.000000 TR
      1.000000             1  1.000000 TR
      1.000000             1  1.000000 TR
      1.000000             1  1.000000 TR
      1.000000             1  1.000000 TR
      1.000000             1  1.000000 TR
      1.000000             1  1.000000 TR
      1.000000             1  1.000000 TR
      1.000000             1  1.000000 TR
      1.000000             1  1.000000 TR
      1.000000             1  1.000000 TR
      1.000000             1  1.000000 TR
      1.000000             1  1.000000 TR
      1.000000             1  1.000000 TR
      1.000000             1  1.000000 TR
      1.000000             1  1.000000 TR
      1.000000             1  1.000000 TR
      1.000000             1  1.000000 TR
      1.000000             1  1.000000 TR
      1.000000             1  1.000000 TR
      1.000000             1  1.000000 TR
      1.000000             1  1.000000 TR
      1.000000             1  1.000000 TR
      1.000000             1  1.000000 TR
      1.000000             1  1.000000 TR
      1.000000             1  1.000000 TR
      1.000000             1  1.000000 TR
      1.000000             1  1.000000 TR
      1.000000             1  1.000000 TR
      1.000000             1  1.000000 TR
      1.000000             1  1.000000 TR
      1.000000             1  1.000000 TR
      1.000000             1  1.000000 TR
      1.000000             1  1.000000 TR
      1.000000             1  1.000000 TR
      1.000000             1  1.000000 TR
      1.000000             1  1.000000 TR
      1.000000             1  1.000000 TR
      1.000000             1  1.000000 TR
      1.000000             1  1.000000 TR
      1.000000             1  1.000000 TR
      1.000000             1  1.000000 TR
      1.000000             1  1.000000 TR
      1.000000             1  1.000000 TR
      1.000000             1  1.000000 TR
      1.000000             1  1.000000 TR
      1.000000             1  1.000000 TR
      1.000000             1  1.000000 TR
      1.000000             1  1.000000 TR
      1.000000             1  1.000000 TR
      1.000000             1  1.000000 TR
      1.000000             1  1.000000 TR
      1.000000             1  1.000000 TR
      1.000000             1  1.000000 TR
      1.000000             1  1.000000 TR
      1.000000             1  1.000000 TR
      1.000000             1  1.000000 TR
      1.000000             1  1.000000 TR
      1.000000             1  1.000000 TR
      1.000000             1  1.000000 TR
      1.000000             1  1.000000 TR
      1.000000             1  1.000000 TR
      1.000000             1  1.000000 TR
      1.000000             1  1.000000 TR
      1.000000             1  1.000000 TR
      1.000000             1  1.000000 TR
      1.000000             1  1.000000 TR
      1.000000             1  1.000000 TR
      1.000000             1  1.000000 TR
      1.000000             1  1.000000 TR
      1.000000             1  1.000000 TR
      1.000000             1  1.000000 TR
      1.000000             1  1.000000 TR
      1.000000             1  1.000000 TR
      1.000000             1  1.000000 TR
      1.000000             1  1.000000 TR
      1.000000             1  1.000000 TR
      1.000000             1  1.000000 TR
      1.000000             1  1.000000 TR
      1.000000             1  1.000000 TR
      1.000000             1  1.000000 TR
      1.000000             1  1.000000 TR
      1.000000             1  1.000000 TR
      1.000000             1  1.000000 TR
      1.000000             1  1.000000 TR
      1.000000             1  1.000000 TR
      1.000000             1  1.000000 TR
      1.000000             1  1.000000 TR
      1.000000             1  1.000000 TR
      1.000000             1  1.000000 TR
      1.000000             1  1.000000 TR
      1.000000             1  1.000000 TR
      1.000000             1  1.000000 TR
      1.000000             1  1.000000 TR
      1.000000             1  1.000000 TR
      1.000000             1  1.000000 TR
      1.000000             1  1.000000 TR
      1.000000             1  1.000000 TR
      1.000000             1  1.000000 TR
      1.000000             1  1.000000 TR
      1.000000             1  1.000000 TR
      1.000000             1  1.000000 TR
      1.000000             1  1.000000 TR
      1.000000             1  1.000000 TR
      1.000000             1  1.000000 TR
      1.000000             1  1.000000 TR
      1.000000             1  1.000000 TR
      1.000000             1  1.000000 TR
      1.000000             1  1.000000 TR
      1.000000             1  1.000000 TR
      1.000000             1  1.000000 TR
      1.000000             1  1.000000 TR
      1.000000             1  1.000000 TR
      1.000000             1  1.000000 TR
      1.000000             1  1.000000 TR
      1.000000             1  1.000000 TR
      1.000000             1  1.000000 TR
      1.000000             1  1.000000 TR
      1.000000             1  1.000000 TR
      1.000000             1  1.000000 TR
      1.000000             1  1.000000 TR
      1.000000             1  1.000000 TR
      1.000000             1  1.000000 TR
      1.000000             1  1.000000 TR
      1.000000             1  1.000000 TR
      1.000000             1  1.000000 TR
      1.000000             1  1.000000 TR
      1.000000             1  1.000000 TR
      1.000000             1  1.000000 TR
      1.000000             1  1.000000 TR
      1.000000             1  1.000000 TR
      1.000000             1  1.000000 TR
      1.000000             1  1.000000 TR
      1.000000             1  1.000000 TR
      1.000000             1  1.000000 TR
      1.000000             1  1.000000 TR
      1.000000             1  1.000000 TR
      1.000000             1  1.000000 TR
      1.000000             1  1.000000 TR
      1.000000             1  1.000000 TR
      1.000000             1  1.000000 TR
      1.000000             1  1.000000 TR
      1.000000             1  1.000000 TR
      1.000000             1  1.000000 TR
      1.000000             1  1.000000 TR
      1.000000             1  1.000000 TR
      1.000000             1  1.000000 TR
      1.000000             1  1.000000 TR
      1.000000             1  1.000000 TR
      1.000000             1  1.000000 TR
