# MODFLOW2000 Discretization File
#offset = [543750.9,2824250.0]                                      
    1  10  10  1   4    2
           0
         0   500.000(10E12.4)                    0     DELTA-X or C   
         0   500.000(10E12.4)                    0     DELTA-Y or R   
constant 1.0              -1     TOP OF MODEL   
constant 0.0              -1     BOTTOM of Layer   1
  1.000000  10  1.000000  TR
